/*--------------------------------*- C++ -*----------------------------------*\
| =========                 |                                                 |
| \\      /  F ield         | foam-extend: Open Source CFD                    |
|  \\    /   O peration     | Version:     4.0                                |
|   \\  /    A nd           | Web:         http://www.foam-extend.org         |
|    \\/     M anipulation  |                                                 |
\*---------------------------------------------------------------------------*/
FoamFile
{
    version     2.0;
    format      ascii;
    class       dictionary;
    location    "system";
    object      fvSolution;
}
// * * * * * * * * * * * * * * * * * * * * * * * * * * * * * * * * * * * * * //

solvers
{
    rho
    {}

    rhoU
    {}

    rhoE
    {}

    k
    {
        solver          BiCGStab;
        preconditioner  DILU;
        tolerance       1e-08;
        relTol          0.01;
    }

    omega
    {
        solver          BiCGStab;
        preconditioner  DILU;
        tolerance       1e-08;
        relTol          0.01;
    }

}

fieldBounds
{
    rho 1e-12 251;
    p   1e-12 2161385.7;
    T   1e-2 3000;
}


// ************************************************************************* //
